.model nchs nmos  LEVEL=3.0 L=3.5e-06 W=3.5e-05 RSH=30.0 RS=0.01
+ RD=0.01 CJ=0.0 CJSW=0.0 MJSW=0.33 JS=0.0 TOX=2e-08 VTO=0.65 PHI=1.0
+ GAMMA=1.0 ETA=0.1 XJ=1e-07 UO=107.5 THETA=0.001 VMAX=100000.0
+ KAPPA=0.0